/*--------------------------------*- C++ -*----------------------------------*\
| =========                 |                                                 |
| \      /  F ield         | OpenFOAM: The Open Source CFD Toolbox           |
|  \    /   O peration     | Version:  v2212                                     |
|   \  /    A nd           | Web:      www.OpenFOAM.org                      |
|    \/     M anipulation  |                                                 |
\*---------------------------------------------------------------------------*/
FoamFile
{
    version     2.0;
    format      ascii;
    class       dictionary;
    location    "constant/";
    object      waveDict;
}
//---------------------------------------------------------------------------*//

wavemakerType   Flap;
nPaddles   1;
genAbs          1;
hingeHeight    -1.500000;

timeSeries 601(
0.000000
0.100000
0.200000
0.300000
0.400000
0.500000
0.600000
0.700000
0.800000
0.900000
1.000000
1.100000
1.200000
1.300000
1.400000
1.500000
1.600000
1.700000
1.800000
1.900000
2.000000
2.100000
2.200000
2.300000
2.400000
2.500000
2.600000
2.700000
2.800000
2.900000
3.000000
3.100000
3.200000
3.300000
3.400000
3.500000
3.600000
3.700000
3.800000
3.900000
4.000000
4.100000
4.200000
4.300000
4.400000
4.500000
4.600000
4.700000
4.800000
4.900000
5.000000
5.100000
5.200000
5.300000
5.400000
5.500000
5.600000
5.700000
5.800000
5.900000
6.000000
6.100000
6.200000
6.300000
6.400000
6.500000
6.600000
6.700000
6.800000
6.900000
7.000000
7.100000
7.200000
7.300000
7.400000
7.500000
7.600000
7.700000
7.800000
7.900000
8.000000
8.100000
8.200000
8.300000
8.400000
8.500000
8.600000
8.700000
8.800000
8.900000
9.000000
9.100000
9.200000
9.300000
9.400000
9.500000
9.600000
9.700000
9.800000
9.900000
10.000000
10.100000
10.200000
10.300000
10.400000
10.500000
10.600000
10.700000
10.800000
10.900000
11.000000
11.100000
11.200000
11.300000
11.400000
11.500000
11.600000
11.700000
11.800000
11.900000
12.000000
12.100000
12.200000
12.300000
12.400000
12.500000
12.600000
12.700000
12.800000
12.900000
13.000000
13.100000
13.200000
13.300000
13.400000
13.500000
13.600000
13.700000
13.800000
13.900000
14.000000
14.100000
14.200000
14.300000
14.400000
14.500000
14.600000
14.700000
14.800000
14.900000
15.000000
15.100000
15.200000
15.300000
15.400000
15.500000
15.600000
15.700000
15.800000
15.900000
16.000000
16.100000
16.200000
16.300000
16.400000
16.500000
16.600000
16.700000
16.800000
16.900000
17.000000
17.100000
17.200000
17.300000
17.400000
17.500000
17.600000
17.700000
17.800000
17.900000
18.000000
18.100000
18.200000
18.300000
18.400000
18.500000
18.600000
18.700000
18.800000
18.900000
19.000000
19.100000
19.200000
19.300000
19.400000
19.500000
19.600000
19.700000
19.800000
19.900000
20.000000
20.100000
20.200000
20.300000
20.400000
20.500000
20.600000
20.700000
20.800000
20.900000
21.000000
21.100000
21.200000
21.300000
21.400000
21.500000
21.600000
21.700000
21.800000
21.900000
22.000000
22.100000
22.200000
22.300000
22.400000
22.500000
22.600000
22.700000
22.800000
22.900000
23.000000
23.100000
23.200000
23.300000
23.400000
23.500000
23.600000
23.700000
23.800000
23.900000
24.000000
24.100000
24.200000
24.300000
24.400000
24.500000
24.600000
24.700000
24.800000
24.900000
25.000000
25.100000
25.200000
25.300000
25.400000
25.500000
25.600000
25.700000
25.800000
25.900000
26.000000
26.100000
26.200000
26.300000
26.400000
26.500000
26.600000
26.700000
26.800000
26.900000
27.000000
27.100000
27.200000
27.300000
27.400000
27.500000
27.600000
27.700000
27.800000
27.900000
28.000000
28.100000
28.200000
28.300000
28.400000
28.500000
28.600000
28.700000
28.800000
28.900000
29.000000
29.100000
29.200000
29.300000
29.400000
29.500000
29.600000
29.700000
29.800000
29.900000
30.000000
30.100000
30.200000
30.300000
30.400000
30.500000
30.600000
30.700000
30.800000
30.900000
31.000000
31.100000
31.200000
31.300000
31.400000
31.500000
31.600000
31.700000
31.800000
31.900000
32.000000
32.100000
32.200000
32.300000
32.400000
32.500000
32.600000
32.700000
32.800000
32.900000
33.000000
33.100000
33.200000
33.300000
33.400000
33.500000
33.600000
33.700000
33.800000
33.900000
34.000000
34.100000
34.200000
34.300000
34.400000
34.500000
34.600000
34.700000
34.800000
34.900000
35.000000
35.100000
35.200000
35.300000
35.400000
35.500000
35.600000
35.700000
35.800000
35.900000
36.000000
36.100000
36.200000
36.300000
36.400000
36.500000
36.600000
36.700000
36.800000
36.900000
37.000000
37.100000
37.200000
37.300000
37.400000
37.500000
37.600000
37.700000
37.800000
37.900000
38.000000
38.100000
38.200000
38.300000
38.400000
38.500000
38.600000
38.700000
38.800000
38.900000
39.000000
39.100000
39.200000
39.300000
39.400000
39.500000
39.600000
39.700000
39.800000
39.900000
40.000000
40.100000
40.200000
40.300000
40.400000
40.500000
40.600000
40.700000
40.800000
40.900000
41.000000
41.100000
41.200000
41.300000
41.400000
41.500000
41.600000
41.700000
41.800000
41.900000
42.000000
42.100000
42.200000
42.300000
42.400000
42.500000
42.600000
42.700000
42.800000
42.900000
43.000000
43.100000
43.200000
43.300000
43.400000
43.500000
43.600000
43.700000
43.800000
43.900000
44.000000
44.100000
44.200000
44.300000
44.400000
44.500000
44.600000
44.700000
44.800000
44.900000
45.000000
45.100000
45.200000
45.300000
45.400000
45.500000
45.600000
45.700000
45.800000
45.900000
46.000000
46.100000
46.200000
46.300000
46.400000
46.500000
46.600000
46.700000
46.800000
46.900000
47.000000
47.100000
47.200000
47.300000
47.400000
47.500000
47.600000
47.700000
47.800000
47.900000
48.000000
48.100000
48.200000
48.300000
48.400000
48.500000
48.600000
48.700000
48.800000
48.900000
49.000000
49.100000
49.200000
49.300000
49.400000
49.500000
49.600000
49.700000
49.800000
49.900000
50.000000
50.100000
50.200000
50.300000
50.400000
50.500000
50.600000
50.700000
50.800000
50.900000
51.000000
51.100000
51.200000
51.300000
51.400000
51.500000
51.600000
51.700000
51.800000
51.900000
52.000000
52.100000
52.200000
52.300000
52.400000
52.500000
52.600000
52.700000
52.800000
52.900000
53.000000
53.100000
53.200000
53.300000
53.400000
53.500000
53.600000
53.700000
53.800000
53.900000
54.000000
54.100000
54.200000
54.300000
54.400000
54.500000
54.600000
54.700000
54.800000
54.900000
55.000000
55.100000
55.200000
55.300000
55.400000
55.500000
55.600000
55.700000
55.800000
55.900000
56.000000
56.100000
56.200000
56.300000
56.400000
56.500000
56.600000
56.700000
56.800000
56.900000
57.000000
57.100000
57.200000
57.300000
57.400000
57.500000
57.600000
57.700000
57.800000
57.900000
58.000000
58.100000
58.200000
58.300000
58.400000
58.500000
58.600000
58.700000
58.800000
58.900000
59.000000
59.100000
59.200000
59.300000
59.400000
59.500000
59.600000
59.700000
59.800000
59.900000
60.000000
);

paddleTilt 1(
601(
0.000000
-0.000434
-0.000808
-0.001017
-0.001005
-0.000746
-0.000193
0.000666
0.001731
0.002875
0.004043
0.005152
0.005982
0.006346
0.006230
0.005627
0.004394
0.002476
0.000090
-0.002536
-0.005373
-0.008297
-0.010886
-0.012776
-0.013935
-0.014301
-0.013521
-0.011396
-0.008208
-0.004247
0.000538
0.006020
0.011524
0.016436
0.020657
0.023996
0.025732
0.025354
0.023102
0.019224
0.013425
0.005701
-0.003045
-0.011934
-0.020824
-0.029302
-0.035446
-0.038817
-0.039644
-0.038128
-0.033670
-0.026077
-0.016395
-0.005643
0.006109
0.018498
0.029968
0.039176
0.046073
0.050556
0.051435
0.047934
0.040888
0.031228
0.018705
0.003454
-0.012673
-0.027846
-0.041822
-0.054280
-0.063265
-0.067098
-0.066249
-0.061471
-0.051841
-0.036775
-0.018222
0.001464
0.022063
0.043420
0.062760
0.077038
0.086189
0.090962
0.089450
0.079456
0.062565
0.041911
0.017531
-0.011560
-0.042227
-0.069264
-0.091516
-0.110473
-0.123667
-0.125851
-0.116709
-0.100701
-0.078664
-0.046987
-0.006761
0.034109
0.070888
0.106206
0.140132
0.164279
0.172013
0.167212
0.155254
0.131954
0.091105
0.038108
-0.015014
-0.065510
-0.118964
-0.172742
-0.212997
-0.231522
-0.234341
-0.227617
-0.204862
-0.157137
-0.089463
-0.016735
0.054061
0.127329
0.203706
0.270588
0.312695
0.326963
0.320957
0.298243
0.251714
0.174183
0.071982
-0.037109
-0.139814
-0.236348
-0.330053
-0.411732
-0.461198
-0.465562
-0.430425
-0.369318
-0.285946
-0.172650
-0.026427
0.138307
0.295789
0.426620
0.527464
0.602852
0.649027
0.648789
0.584795
0.457640
0.288259
0.101285
-0.092161
-0.293569
-0.500355
-0.692626
-0.837710
-0.908441
-0.898550
-0.821587
-0.694580
-0.522112
-0.296891
-0.016855
0.298249
0.607684
0.867846
1.052145
1.157164
1.191836
1.159597
1.048893
0.841278
0.531525
0.142869
-0.276055
-0.670595
-1.001405
-1.253557
-1.428961
-1.528712
-1.538910
-1.431834
-1.183212
-0.793583
-0.298506
0.239228
0.750602
1.182931
1.511961
1.737151
1.864087
1.886727
1.781960
1.520004
1.084465
0.491417
-0.202769
-0.910671
-1.537482
-2.007870
-2.283287
-2.363461
-2.273814
-2.045671
-1.698596
-1.233840
-0.642545
0.075857
0.894683
1.749361
2.540524
3.151710
3.476788
3.447298
3.050232
2.331679
1.386297
0.335241
-0.701666
-1.630458
-2.396249
-2.982618
-3.399827
-3.666625
-3.791533
-3.760268
-3.534095
-3.059366
-2.285141
-1.184833
0.222943
1.860717
3.591489
5.232737
6.581711
7.445638
7.670057
7.160791
5.899056
3.951355
1.472799
-1.302657
-4.090556
-6.598473
-8.568554
-9.806767
-10.195336
-9.693821
-8.336876
-6.233357
-3.564548
-0.573558
2.460417
5.259417
7.583041
9.252150
10.156862
10.253432
9.557313
8.137994
6.116541
3.661718
0.979052
-1.708855
-4.186887
-6.270192
-7.819626
-8.747660
-9.016670
-8.634264
-7.649461
-6.149970
-4.258263
-2.124324
0.085664
2.204191
4.078505
5.583947
6.631562
7.170371
7.186703
6.702193
5.770776
4.474859
2.920440
1.230037
-0.467302
-2.047466
-3.401617
-4.443894
-5.116372
-5.391177
-5.269886
-4.781269
-3.978424
-2.934955
-1.739270
-0.487259
0.725451
1.810963
2.695951
3.326852
3.672452
3.724276
3.495842
3.020816
2.349585
1.544558
0.675049
-0.188125
-0.978486
-1.639331
-2.127576
-2.415954
-2.494201
-2.369112
-2.062972
-1.610738
-1.056824
-0.451501
0.153474
0.709404
1.174333
1.515718
1.712566
1.756744
1.652824
1.416742
1.074068
0.657847
0.205554
-0.244425
-0.655836
-0.997049
-1.243418
-1.379202
-1.398275
-1.303827
-1.107741
-0.829588
-0.494689
-0.131564
0.230371
0.562847
0.840967
1.045302
1.163074
1.188517
1.123049
0.975152
0.759349
0.494519
0.202330
-0.094222
-0.372684
-0.613131
-0.799503
-0.920317
-0.969358
-0.946198
-0.855897
-0.708048
-0.515904
-0.295527
-0.064413
0.160187
0.362484
0.528936
0.649175
0.716912
0.730142
0.690751
0.604216
0.479322
0.327302
0.160577
-0.008179
-0.166671
-0.303901
-0.411203
-0.482713
-0.515329
-0.508812
-0.465949
-0.392144
-0.294568
-0.181563
-0.062274
0.054093
0.159253
0.246370
0.310163
0.347220
0.356453
0.339010
0.297759
0.236990
0.162334
0.080253
-0.002794
-0.080804
-0.148328
-0.200858
-0.235410
-0.250636
-0.246519
-0.224311
-0.186674
-0.137400
-0.080752
-0.021141
0.036895
0.089036
0.131792
0.162706
0.180160
0.183449
0.173093
0.150734
0.118630
0.079468
0.036458
-0.006930
-0.047541
-0.082750
-0.110306
-0.128464
-0.136408
-0.134257
-0.122691
-0.102863
-0.076613
-0.046307
-0.014318
0.017151
0.045894
0.069845
0.087546
0.098222
0.101484
0.097317
0.086388
0.069977
0.049533
0.026540
0.002743
-0.019975
-0.040053
-0.056373
-0.067983
-0.074134
-0.074651
-0.069942
-0.060608
-0.047366
-0.031325
-0.013916
0.003555
0.020023
0.034394
0.045585
0.052943
0.056297
0.055613
0.050952
0.042804
0.032068
0.019631
0.006270
-0.007058
-0.019246
-0.029470
-0.037269
-0.042219
-0.043920
-0.042362
-0.037963
-0.031168
-0.022372
-0.012244
-0.001719
0.008427
0.017679
0.025452
0.031082
0.034228
0.034942
0.033293
0.029300
0.023293
0.015943
0.007840
-0.000612
-0.008845
-0.016111
-0.021906
-0.026061
-0.028376
-0.028564
-0.026644
-0.023005
-0.017988
-0.011794
-0.004852
0.002146
0.008673
0.014484
0.019236
0.022439
0.023872
0.023680
0.021962
0.018684
0.014069
0.008669
0.002922
-0.002963
-0.008623
-0.013471
-0.017143
-0.019615
-0.020791
-0.020417
-0.018499
-0.015411
-0.011441
-0.006674
-0.001403
0.003790
0.008492
0.012598
0.015891
0.017946
0.018581
0.017992
0.016297
0.013413
0.009495
0.005047
0.000446
-0.004209
-0.008662
-0.012384
-0.015059
-0.016740
-0.017388
-0.016741
-0.014453
-0.011361
-0.007786
-0.003787
0.000399
0.004262
0.007486
0.010080
0.011959
0.012839
0.012654
0.011662
0.010037
0.007758
0.004970
0.002068
-0.000682
-0.003249
-0.005512
-0.007181
-0.008130
-0.008479
-0.008292
-0.007496
-0.006157
-0.004537
-0.002819
-0.001037
0.000702
0.002169
0.003246
0.003971
0.004353
0.004325
0.003919
0.003283
0.002531
0.001701
0.000883
0.000210
-0.000249
-0.000493
-0.000514
-0.000316
0.000040
0.000000
0.000000
)
);
