/*--------------------------------*- C++ -*----------------------------------*\
| =========                 |                                                 |
| \\      /  F ield         | OpenFOAM: The Open Source CFD Toolbox           |
|  \\    /   O peration     | Version:  1.5                                   |
|   \\  /    A nd           | Web:      http://www.OpenFOAM.org               |
|    \\/     M anipulation  |                                                 |
\*---------------------------------------------------------------------------*/
FoamFile
{
    version     2.0;
    format      ascii;
    class       dictionary;
    object      loggingProperties;
}
// * * * * * * * * * * * * * * * * * * * * * * * * * * * * * * * * * * * * * //

surfaceElevation
{
    type waveGauge;

    pointDistribution userDefinedDistribution;
    N 2;
    xValues nonuniform 2(-0.02 0);
    yValues nonuniform 2(0 0);
    zValues nonuniform 2(-0.4 -0.4);

//yValues uniform -0.09;
    //zValues uniform 0.005;
    add       ( 0 0 0.8);
    axis      z;

    // REQURIED ONLY FOR NEW FUNCTIONOBJECT IMPLEMENTATION
    writeControl timeStep;
    writeInterval 1;
}


// ************************************************************************* //
